 &time_control
 history_outname                     = '/scratch/w42/ts1181/WRF_africa_convection_elev1500_alb0/wrfout_d<domain>_<date>',
 run_days                            = 7,
 run_hours                           = 0,
 run_minutes                         = 0,
 run_seconds                         = 0,
 start_year                          = 2007,
 start_month                         = 06,
 start_day                           = 1,
 start_hour                          = 12,
 start_minute                        = 00,
 start_second                        = 00,
 end_year                            = 2007,
 end_month                           = 06,
 end_day                             = 8,
 end_hour                            = 12,
 end_minute                          = 00,
 end_second                          = 00,
 history_interval                    = 15,
 frames_per_outfile                  = 96,
 restart                             = .false.,
 restart_interval                    = 20000,
 io_form_history                     = 2
 io_form_restart                     = 2
 io_form_input                       = 2
 io_form_boundary                    = 2
 /

 &domains
 time_step                           = 10,
 time_step_fract_num                 = 0,
 time_step_fract_den                 = 1,
 max_dom                             = 1,
 s_we                                = 1,
 e_we                                = 302,
 s_sn                                = 1,
 e_sn                                = 3,
 s_vert                              = 1,
 e_vert                              = 87,
 dx                                  = 2000,
 dy                                  = 2000,
 ztop                                = 20000.,
 eta_levels                          = 1.   , 0.99 , 0.98 , 0.97 , 0.96 ,
                                       0.95 , 0.94 , 0.93 , 0.92 , 0.91 ,
                                       0.9  , 0.888, 0.876, 0.864, 0.852,
                                       0.84 , 0.828, 0.816, 0.804, 0.792,
                                       0.78 , 0.768, 0.756, 0.744, 0.732,
                                       0.72 , 0.708, 0.696, 0.684, 0.672,
                                       0.66 , 0.648, 0.636, 0.624, 0.612,
                                       0.6  , 0.588, 0.576, 0.564, 0.552,
                                       0.54 , 0.528, 0.516, 0.504, 0.492,
                                       0.48 , 0.468, 0.456, 0.444, 0.432,
                                       0.42 , 0.408, 0.396, 0.384, 0.372,
                                       0.36 , 0.348, 0.336, 0.324, 0.312,
                                       0.3  , 0.288, 0.276, 0.264, 0.252,
                                       0.24 , 0.228, 0.216, 0.204, 0.192,
                                       0.18 , 0.168, 0.156, 0.144, 0.132,
                                       0.12 , 0.108, 0.096, 0.084, 0.072,
                                       0.06 , 0.048, 0.036, 0.024, 0.012,
                                       0.005, 0.

 /

 &physics
 mp_physics                          = 14,
 ra_lw_physics                       = 1,
 ra_sw_physics                       = 1,
 radt                                = 5,
 sf_sfclay_physics                   = 1,
 sf_surface_physics                  = 1,
 bl_pbl_physics                      = 1,
 bldt                                = 0,
 tracer_pblmix                       = 1
 cu_physics                          = 0,
 cudt                                = 0,
 /

 &fdda
 /

 &dynamics
 hybrid_opt                          = 0,
 rk_ord                              = 3,
 diff_opt                            = 1,      1,      1,
 km_opt                              = 4,      4,      4,
 damp_opt                            = 2,
 dampcoef                            = .003,
 zdamp                               = 5000.,
 khdif                               = 300,
 kvdif                               = 1,
 smdiv                               = 0.1,
 emdiv                               = 0.01,
 epssm                               = 0.1,
 time_step_sound                     = 6,
 h_mom_adv_order                     = 5,
 v_mom_adv_order                     = 3,
 h_sca_adv_order                     = 5,
 v_sca_adv_order                     = 3,
 tracer_opt                          = 2,
 mix_full_fields                     = .true.,
 non_hydrostatic                     = .true.,
 /

 &bdy_control
 periodic_x                          = .true.,
 symmetric_xs                        = .false.,
 symmetric_xe                        = .false.,
 open_xs                             = .false.,
 open_xe                             = .false.,
 periodic_y                          = .true.,
 symmetric_ys                        = .false.,
 symmetric_ye                        = .false.,
 open_ys                             = .false.,
 open_ye                             = .false.,
 /

 &grib2
 /

 &namelist_quilt
 nio_tasks_per_group = 0,
 nio_groups = 1,
 /

 $ideal
 ideal_case = 10
 /
